          90
 Energy    -339.97703694096845     
  O      4.17389823     -2.76887285      2.84858135
  H      3.25169415     -2.48908342      2.98979930
  H      5.26857064     -2.00639546     -0.60143954
  O      2.72257395      0.26858342     -2.73381324
  H      4.54400642     -2.94608446      3.70888491
  H      4.83505472     -2.59923549     -1.97648068
  O     -1.72983470      0.67473027      1.21280893
  H      2.17496423      0.99161900     -2.39552533
  H      4.79245226      0.83222202      0.43170312
  O      6.84205746     -0.85834536     -3.07392906
  H      3.63808081      0.58645921     -2.69213972
  H      4.97883651      1.71299363     -0.81922436
  O      4.04686817     -4.39557928      0.47030609
  H     -2.16212582      1.12372194      1.93414553
  H      3.80798531      3.16192421     -4.60155032
  O     -0.23669330     -3.71565904      1.82605947
  H     -0.78525718      0.61212540      1.43978361
  H      5.14382768      3.70577549     -5.16321510
  O      0.95852718      0.44320645      1.61512257
  H      6.60049370     -1.52189999     -2.41489377
  H      5.89600060      0.61094060     -2.77540210
  O     -1.82522828     -2.06680302      0.41701873
  H      6.56313736     -1.21902475     -3.92480064
  H      5.21699631      1.90125814     -3.36675303
  O     -1.02127782     -1.63692055     -2.24111952
  H      4.66788840     -3.97046114     -0.13484846
  H      3.36181064     -1.39082896     -3.25333437
  O      1.11882609     -3.28020389     -3.03137842
  H      4.15246360     -3.95127296      1.32058909
  H      4.28591426     -2.23970996     -4.16451473
  O      0.09022723      2.43703475     -5.75049169
  H     -0.86265464     -3.14330126      1.34593641
  H      2.18648452     -0.75149405     -1.23920260
  O      1.59948904     -1.94078694      3.07923138
  H     -0.74867333     -4.41541997      2.22264467
  H      1.82611021     -2.05936277     -0.44327811
  O      2.36558959      2.76948463      0.87707817
  H      1.25700233     -0.13445914      0.89404120
  H     -1.50668461     -1.65572646     -5.07810375
  O      4.56771640     -0.95536162      0.75382714
  H      1.44090466      1.27238116      1.50963676
  H     -3.04804629     -1.80857673     -5.13022769
  O      1.29364036      2.37147768     -1.70497543
  H     -1.92841479     -1.16085553      0.73010765
  H      1.86347581      3.25360506     -3.24752062
  O      5.50734141     -2.65169432     -1.28278738
  H     -1.60539577     -2.00413245     -0.52232158
  H      1.44899945      3.24725529     -4.72959365
  O      4.70618391      1.73925623      0.10698907
  H     -0.25036728     -2.15901641     -2.49878509
  H     -1.71625357      1.43175866     -3.24573378
  O      4.71766437      2.91377288     -4.84662923
  H     -1.59299235     -1.58757264     -3.01786818
  H     -2.12011827      0.52830857     -4.42996426
  O      5.24519215      1.30918830     -2.60576873
  H      1.17227978     -3.68541031     -2.15406493
  H      5.16590648     -1.01134265     -5.78019856
  O      3.66832327     -2.29127255     -3.42288935
  H      2.02791294     -3.03325119     -3.25267714
  H      5.87129317     -2.32817926     -6.19062228
  O      2.01507964     -1.11486876     -0.36349115
  H     -0.65099984      2.13248673     -5.19651642
  H      0.67245942     -1.43839166     -5.52418444
  O     -2.34516803     -1.32347070     -4.70718520
  H     -0.29074384      2.80256574     -6.54431563
  H      0.43263661     -2.74103747     -4.72933231
  O      2.16681988      3.49260548     -4.13291989
  H      0.95033576     -2.55585561      2.71400295
  H     -1.44313670      1.03267750     -0.60583045
  O     -1.87026907      1.43220113     -4.19873943
  H      1.37004168     -1.06801163      2.73897128
  H     -0.97907990      0.10287404     -1.75349922
  O      5.55812970     -1.83494753     -5.43763914
  H      3.24506095      2.42986756      0.62410118
  H      4.52403222      1.29548278     -5.82882750
  O      0.08795849     -2.20611635     -5.45576691
  H      2.50946130      3.60247538      1.31745617
  H      3.37302084      0.30234494     -6.08319373
  O     -1.09716560      1.03245948     -1.50584828
  H      3.66602599     -1.00640807      0.40389424
  H      1.96935785      0.22543081     -4.47127332
  O      4.32263897      0.43200101     -6.20823242
  H      4.57694310     -1.50287739      1.54849357
  H      1.12163775      0.91142501     -5.57540903
  O      1.65641934      0.13083836     -5.38011605
  H      1.62065907      2.57689428     -0.82081796
  H      0.91694029     -3.93902556      0.37561248
  O      1.51112151     -3.86686458     -0.37995491
  H      0.41404761      1.97758661     -1.61410803
  H      2.39160147     -4.15883504     -0.09601277