141
-3523.68647 frame 0   xyz file generated by terachem
   O     101.1400000000  103.2330000000  105.6980000000
   H     101.8000000000  103.5770000000  106.3650000000
   H     101.6190000000  102.7070000000  104.9960000000
   O     103.6620000000  102.9620000000   95.6655000000
   H     104.5690000000  102.9810000000   96.0878000000
   H     103.1180000000  102.2300000000   96.0764000000
   O      97.8739000000  103.0170000000  100.8160000000
   H      98.1286000000  103.0380000000   99.8488000000
   H      97.1738000000  102.3170000000  100.9600000000
   O     101.0990000000  104.8500000000   99.0307000000
   H     101.4830000000  104.2600000000   99.7405000000
   H     101.8290000000  105.3960000000   98.6197000000
   O     100.6450000000  100.1690000000   95.8915000000
   H     101.4910000000  100.3050000000   96.4062000000
   H      99.8887000000  100.6180000000   96.3678000000
   O      99.8140000000  100.8350000000  101.2320000000
   H      99.3292000000   99.9768000000  101.0630000000
   H      99.1516000000  101.5610000000  101.4140000000
   O      98.8040000000   98.5122000000   97.7581000000
   H      99.7821000000   98.6469000000   97.9167000000
   H      98.4218000000   99.3265000000   97.3213000000
   O     100.7470000000  100.1640000000  103.7360000000
   H     100.6580000000  100.6280000000  102.8550000000
   H     100.1050000000   99.3986000000  103.7760000000
   O      98.0703000000   98.5169000000  100.4380000000
   H      97.1728000000   98.8786000000  100.6900000000
   H      98.1940000000   98.5922000000   99.4481000000
   O      96.3735000000   99.1681000000  103.6630000000
   H      96.0326000000   99.3852000000  104.5780000000
   H      97.3379000000   98.9098000000  103.7200000000
   O      96.7407000000  101.6410000000   95.2466000000
   H      95.7652000000  101.6250000000   95.0276000000
   H      97.2561000000  101.9570000000   94.4503000000
   O      96.8557000000   95.6391000000  102.7590000000
   H      96.1573000000   96.2502000000  102.3860000000
   H      97.7417000000   95.8567000000  102.3490000000
   O     103.9690000000   95.8099000000  100.6110000000
   H     104.6560000000   95.7715000000  101.3360000000
   H     103.1520000000   96.2763000000  100.9500000000
   O      98.4632000000  103.6440000000  104.8550000000
   H      99.4489000000  103.7100000000  105.0090000000
   H      98.0230000000  103.2650000000  105.6690000000
   O      98.5480000000  101.2650000000   97.2486000000
   H      98.6889000000  102.1400000000   97.7110000000
   H      97.9199000000  101.3910000000   96.4808000000
   O     104.7640000000  102.9070000000  101.9290000000
   H     104.1570000000  103.6500000000  101.6480000000
   H     105.5970000000  103.2890000000  102.3280000000
   O     104.7270000000   95.4357000000   98.0387000000
   H     103.9470000000   95.0658000000   97.5351000000
   H     104.4960000000   95.5048000000   99.0090000000
   O     103.8980000000   98.4279000000   99.9845000000
   H     103.0150000000   98.6549000000   99.5737000000
   H     104.1280000000   97.4773000000   99.7761000000
   O      99.1666000000   96.4421000000  101.7230000000
   H      98.8432000000   97.2066000000  101.1660000000
   H      99.6439000000   95.7837000000  101.1410000000
   O     102.8910000000  100.8420000000   97.4776000000
   H     103.8370000000  100.6620000000   97.2097000000
   H     102.8680000000  101.1660000000   98.4234000000
   O      96.2272000000  100.9900000000  101.6980000000
   H      96.1488000000  100.4220000000  102.5170000000
   H      95.3136000000  101.2370000000  101.3750000000
   O      95.2781000000   97.1690000000   98.9658000000
   H      95.1448000000   97.3770000000   99.9348000000
   H      95.5879000000   97.9911000000   98.4881000000
   O      98.8648000000   98.2225000000  103.9170000000
   H      98.9498000000   97.4630000000  103.2720000000
   H      99.0548000000   97.8964000000  104.8430000000
   O     104.5780000000  100.0350000000  101.9520000000
   H     104.4190000000  101.0110000000  101.8020000000
   H     104.2060000000   99.5149000000  101.1840000000
   O     102.4290000000  104.0600000000  101.3480000000
   H     101.7570000000  103.6650000000  101.9740000000
   H     102.2090000000  105.0210000000  101.1850000000
   O      96.7980000000   93.9442000000  100.5680000000
   H      97.5082000000   94.4867000000  100.1190000000
   H      96.9824000000   93.9004000000  101.5500000000
   O      95.1187000000   97.7006000000  101.7970000000
   H      94.1713000000   97.4236000000  101.9570000000
   H      95.3773000000   98.4032000000  102.4600000000
   O     105.6540000000  100.6060000000   97.0509000000
   H     105.8170000000   99.9171000000   96.3446000000
   H     105.5990000000  100.1600000000   97.9445000000
   O      98.7082000000  103.7520000000   98.2443000000
   H      98.3971000000  104.2340000000   97.4254000000
   H      99.5985000000  104.1110000000   98.5244000000
   O      99.4680000000  105.2830000000   95.6905000000
   H     100.3950000000  104.9110000000   95.6516000000
   H      99.5119000000  106.2790000000   95.7723000000
   O     102.1600000000   94.3495000000   98.7472000000
   H     102.5270000000   93.5343000000   98.2993000000
   H     102.4360000000   94.3546000000   99.7083000000
   O      98.7716000000  100.7390000000  106.1970000000
   H      99.3981000000  101.1780000000  106.8400000000
   H      99.2972000000  100.2310000000  105.5140000000
   O     103.4540000000   97.5899000000   96.4218000000
   H     103.8850000000   98.1351000000   95.7025000000
   H     104.1420000000   97.0098000000   96.8575000000
   O      95.6303000000   99.9966000000   98.2454000000
   H      96.5404000000  100.4100000000   98.2689000000
   H      94.9829000000  100.6380000000   97.8345000000
   O      99.5057000000   94.6000000000   99.7620000000
   H      98.9150000000   94.2304000000   99.0448000000
   H     100.4550000000   94.5967000000   99.4467000000
   O      93.7239000000  101.4820000000  100.5920000000
   H      93.2853000000  102.1740000000  100.0190000000
   H      93.3747000000  100.5770000000  100.3470000000
   O     102.3600000000  101.5510000000   99.9645000000
   H     102.6750000000  102.3700000000  100.4440000000
   H     101.5560000000  101.1800000000  100.4300000000
   O      99.1288000000   95.9801000000   96.6021000000
   H      99.0373000000   96.9416000000   96.8612000000
   H     100.0970000000   95.7292000000   96.5881000000
   O     103.5440000000   99.0385000000  104.4120000000
   H     104.1820000000   99.1842000000  103.6550000000
   H     102.6050000000   99.1025000000  104.0730000000
   O      99.4826000000   98.2371000000   94.2566000000
   H      98.9683000000   98.7645000000   93.5804000000
   H     100.0180000000   98.8593000000   94.8273000000
   O      97.1117000000  105.8890000000  101.2840000000
   H      97.8025000000  106.4030000000  101.7920000000
   H      97.4876000000  105.0020000000  101.0140000000
   O     103.1330000000  101.9810000000  104.5350000000
   H     103.5810000000  102.2160000000  103.6730000000
   H     102.6780000000  101.0950000000  104.4440000000
   O     101.8580000000   95.9598000000  104.5650000000
   H     102.4870000000   95.1872000000  104.4780000000
   H     100.9510000000   95.6242000000  104.8180000000
   O     106.3410000000   99.3419000000   99.3955000000
   H     105.4710000000   98.9305000000   99.6664000000
   H     107.0400000000   99.1200000000  100.0750000000
   O     101.8360000000   97.4467000000  102.1100000000
   H     100.8600000000   97.3974000000  101.8980000000
   H     101.9910000000   97.1334000000  103.0470000000
   O     101.6650000000   98.3161000000   98.3194000000
   H     101.9040000000   99.2338000000   98.0020000000
   H     102.2240000000   97.6409000000   97.8377000000
   O      99.9847000000  103.2720000000  102.3070000000
   H      99.6407000000  103.1040000000  103.2310000000
   H      99.2165000000  103.4530000000  101.6930000000
